include omnetpp.ini

[Config tuning]
sim-time-limit =3600s #1hour
**.disk.serviceTimeMean = 0.1
**.processor.serviceTimeMean = 0.1
**.remote_server.serviceTimeMean = 0.1

[Config tuning_clients]
extends = tuning
**.clients = 20 #this number of clients give acceptable response time

