include omnetpp.ini

[Config tuning]
repeat = 10
seed-set = ${repetition}
sim-time-limit =3600s #1hour

**.processor.serviceTimeMean = 0.1
**.disk.serviceTimeMean = 1.0
**.remote_server.serviceTimeMean = 1.0

output-scalar-file = "results/tuning.sca"
output-vector-file = "results/tuning.vec"

[Config tuning_clients]
extends = tuning
**.clients = ${1..100 step 3}

[Config tuning_warmup]
**.processor.serviceTimeMean = 0.1
**.disk.serviceTimeMean = 1.0
**.remote_server.serviceTimeMean = 1.0
extends = tuning
**.clients = 50 

