include omnetpp.ini

[Config tuning]
repeat = 10
seed-set = ${repetition}
sim-time-limit =3600s #1hour
**.disk.serviceTimeMean = 1.0
**.processor.serviceTimeMean = 1.0
**.remote_server.serviceTimeMean = 1.0


output-scalar-file = "results/tuning.sca"
output-vector-file = "results/tuning.vec"

[Config tuning_clients]
extends = tuning
**.clients = 21 

[Config tuning_warmup]
extends = tuning
**.clients = 21

