include omnetpp.ini

[Config tuning]
repeat = 10
seed-set = ${repetition}
sim-time-limit =3600s #1hour
**.disk.serviceTimeMean = 0.1
**.processor.serviceTimeMean = 0.1
**.remote_server.serviceTimeMean = 0.1


output-scalar-file = "results/tuning.sca"
output-vector-file = "results/tuning.vec"

[Config tuning_clients]
extends = tuning
**.clients = ${1..35} 

